power-feeders/Taxonomy_feeders/R1_1247_3_t6_small.glm
#include "water_and_setpoint_schedule_v5.glm"
#include "commercial_schedules.glm"
#include "appliance_schedules.glm"
#include "daily_elasticity_schedules.glm"
#set relax_naming_rules=1
#set minimum_timestep=60
#set profiler=1
module residential {
  implicit_enduses NONE;
};
module tape;
module climate;
module powerflow {
  NR_iteration_limit 50;
  solver_method NR;
  default_maximum_voltage_error 1e-6;
};
module market;
class player {
  double value;
};
class auction {
  double my_avg;
  double my_std;
};
clock {
  timezone PST+8PDT;
  starttime '2009-06-01 09:00:00';
  stoptime '2009-06-01 20:00:00';
};
object underground_line_conductor {
  name underground_line_conductor_2;
  rating.summer.continuous 488.0;
  outer_diameter 2.15;
  conductor_gmr 0.0371 ft;
  conductor_diameter 1.152;
  conductor_resistance 0.091872;
  neutral_gmr 0.0842565914341201 ft;
  neutral_resistance 5.3856;
  neutral_diameter 0.1019;
  neutral_strands 20.0;
  shield_gmr 0.00;
  shield_resistance 0.00;
};
object line_spacing {
  name line_spacing_9;
  distance_AB 0.0 in;
  distance_BC 0.0 in;
  distance_AC 0.0 in;
  distance_AN 0.0 in;
  distance_BN 0.0 in;
  distance_CN 0.0 in;
};
object line_configuration {
  name line_configuration_17;
  conductor_A underground_line_conductor_2;
  conductor_B underground_line_conductor_2;
  conductor_C underground_line_conductor_2;
  conductor_N underground_line_conductor_2;
  spacing line_spacing_9;
};
object auction {
  name Market_1;
  period 900;
  special_mode BUYERS_ONLY;
  unit kW;
  my_avg 0.099172;
  my_std 0.033058;
};
object triplex_node {
  name R1-12-47-3_load_16_tn_B_1;
  phases BS;
  nominal_voltage 120;
};
object triplex_meter {
  name R1-12-47-3_load_16_tm_B_1;
  phases BS;
  groupid Commercial_Meter;
  meter_power_consumption 1.333333+7.000000j;
  nominal_voltage 120;
  bill_mode HOURLY;
  monthly_fee 25.00;
  bill_day 1;
  power_market Market_1;
  parent R1-12-47-3_load_16_tn_B_1;
};
object triplex_meter {
  name R1-12-47-3_tm_1;
  phases BS;
  voltage_1 -60-103.92j;
  voltage_2 -60-103.92j;
  voltage_N 0;
  nominal_voltage 120;
};
object triplex_meter {
  phases BS;
  name tpm6_R1-12-47-3_tm_1;
  groupid Residential_Meter;
  meter_power_consumption 2+11j;
  bill_mode HOURLY;
  monthly_fee 10.00;
  bill_day 1;
  nominal_voltage 120;
  power_market Market_1;
  parent R1-12-47-3_tm_1;
};
object transformer_configuration {
  name transformer_configuration_137;
  connect_type WYE_WYE;
  install_type POLETOP;
  primary_voltage 12470.000 V;
  secondary_voltage 480 V;
  power_rating 50.0;
  powerC_rating 50.0;
  resistance 0.00200;
  reactance 0.01000;
  shunt_impedance 391.760+396.403j;
};
object meter {
  name R1-12-47-3_meter_21;
  phases ABCN;
  nominal_voltage 480;
};
object transformer_configuration {
  name transformer_configuration_142;
  connect_type WYE_WYE;
  install_type POLETOP;
  primary_voltage 12470.000 V;
  secondary_voltage 480 V;
  power_rating 75.0;
  powerA_rating 0.0;
  powerB_rating 25.0;
  powerC_rating 50.0;
  resistance 0.00133;
  reactance 0.00667;
  shunt_impedance 443.910+482.260j;
};
object node {
  phases ABCN;
  name R1-12-47-3_load_21_strip_node;
  nominal_voltage 480.000000;
};
object triplex_meter {
  phases BS;
  name tpm9_R1-12-47-3_tm_1;
  groupid Residential_Meter;
  meter_power_consumption 2+11j;
  bill_mode HOURLY;
  monthly_fee 10.00;
  bill_day 1;
  nominal_voltage 120;
  power_market Market_1;
  parent R1-12-47-3_tm_1;
};
object house {
  name house9_R1-12-47-3_tm_1;
  groupid Residential;
  schedule_skew 62;
  floor_area 1298;
  number_of_stories 1;
  ceiling_height 8;
  over_sizing_factor 0.1;
  Rroof 30.08;
  Rwall 17.83;
  Rfloor 15.63;
  glazing_layers 2;
  glass_type 1;
  glazing_treatment 1;
  window_frame 2;
  Rdoors 2.42;
  airchange_per_hour 0.59;
  cooling_COP 3.2;
  air_temperature 71.50;
  mass_temperature 71.50;
  total_thermal_mass_per_floor_area 3.387;
  heating_system_type HEAT_PUMP;
  heating_COP 3.2;
  cooling_system_type ELECTRIC;
  auxiliary_strategy DEADBAND;
  auxiliary_system_type ELECTRIC;
  motor_model BASIC;
  motor_efficiency AVERAGE;
  breaker_amps 1000;
  hvac_breaker_rating 1000;
  cooling_setpoint 85.58;
  heating_setpoint 82.58;
  parent tpm9_R1-12-47-3_tm_1;
};
object controller {
  schedule_skew 62;
  bid_mode OFF;
  control_mode DOUBLE_RAMP;
  resolve_mode DEADBAND;
  heating_range_high -1.222;
  cooling_range_high 1.222;
  heating_range_low -0.005;
  cooling_range_low -0.005;
  heating_ramp_high -2.756;
  cooling_ramp_high 2.756;
  heating_ramp_low -2.756;
  cooling_ramp_low 2.756;
  cooling_base_setpoint cooling7*1.50+85.58;
  heating_base_setpoint heating5*0.03+73.79;
  period 900;
  average_target my_avg;
  standard_deviation_target my_std;
  target air_temperature;
  heating_setpoint heating_setpoint;
  heating_demand last_heating_load;
  cooling_setpoint cooling_setpoint;
  cooling_demand last_cooling_load;
  deadband thermostat_deadband;
  total hvac_load;
  load hvac_load;
  state power_state;
  name controller_2;
  market Market_1;
  parent house9_R1-12-47-3_tm_1;
};
object node {
  name R1-12-47-3_node_17;
  phases ABCN;
  voltage_A 7200+0.0j;
  voltage_B -3600-6235j;
  voltage_C -3600+6235j;
  nominal_voltage 7200;
};
object node {
  name R1-12-47-3_node_18;
  phases ABCN;
  voltage_A 7200+0.0j;
  voltage_B -3600-6235j;
  voltage_C -3600+6235j;
  nominal_voltage 7200;
};
object overhead_line_conductor {
  name overhead_line_conductor_6;
  rating.summer.continuous 180.0;
  geometric_mean_radius 0.00418 ft;
  resistance 1.62570;
};
object line_spacing {
  name line_spacing_10;
  distance_AB 57.6 in;
  distance_BC 57.6 in;
  distance_AC 57.6 in;
  distance_AN 84.0 in;
  distance_BN 84.0 in;
  distance_CN 84.0 in;
};
object line_configuration {
  name line_configuration_24;
  conductor_A overhead_line_conductor_6;
  conductor_B overhead_line_conductor_6;
  conductor_C overhead_line_conductor_6;
  conductor_N overhead_line_conductor_6;
  spacing line_spacing_10;
};
object overhead_line {
  groupid Distribution_Line;
  name R1-12-47-3_ol_14;
  phases ABCN;
  length 1499.769;
  from R1-12-47-3_node_17;
  to R1-12-47-3_node_18;
  configuration line_configuration_24;
};
object triplex_node {
  name R1-12-47-3_load_17_tn_B_1;
  phases BS;
  nominal_voltage 120;
};
object triplex_meter {
  name R1-12-47-3_load_17_tm_B_1;
  phases BS;
  groupid Commercial_Meter;
  meter_power_consumption 1.333333+7.000000j;
  nominal_voltage 120;
  bill_mode HOURLY;
  monthly_fee 25.00;
  bill_day 1;
  power_market Market_1;
  parent R1-12-47-3_load_17_tn_B_1;
};
object house {
  name stripmallR1-12-47-3_load_17_B1;
  groupid Commercial;
  schedule_skew 1800;
  floor_area 1717;
  design_internal_gains 21097;
  number_of_doors 1;
  aspect_ratio 1.50;
  total_thermal_mass_per_floor_area 5.53;
  interior_surface_heat_transfer_coeff 0.59;
  interior_exterior_wall_ratio -0.1;
  exterior_floor_fraction 0.800;
  exterior_ceiling_fraction 1.000;
  Rwall 18.3;
  Rroof 19.0;
  Rfloor 40.00;
  Rdoors 3.0;
  exterior_wall_fraction 0.40;
  glazing_layers TWO;
  glass_type GLASS;
  glazing_treatment LOW_S;
  window_frame NONE;
  airchange_per_hour 1.76;
  window_wall_ratio 0.050;
  heating_system_type GAS;
  auxiliary_system_type NONE;
  fan_type ONE_SPEED;
  cooling_system_type ELECTRIC;
  air_temperature 70.45;
  mass_temperature 70.45;
  over_sizing_factor 0.1;
  cooling_COP 2.73;
  cooling_setpoint 85;
  heating_setpoint stripmall_heating;
  parent R1-12-47-3_load_17_tm_B_1;
};
object ZIPload {
  name lights_R1-12-47-3_load_17_B_1;
  schedule_skew 1800;
  heatgain_fraction 1.0;
  power_fraction 0.40;
  impedance_fraction 0.20;
  current_fraction 0.40;
  power_pf 1.00;
  current_pf 1.00;
  impedance_pf 1.00;
  base_power stripmall_lights*1.52;
  parent stripmallR1-12-47-3_load_17_B1;
};
object triplex_node {
  name R1-12-47-3_load_1_tn_C_2;
  phases CS;
  nominal_voltage 120;
};
object triplex_meter {
  name R1-12-47-3_load_1_tm_C_2;
  phases CS;
  groupid Commercial_Meter;
  meter_power_consumption 1.333333+7.000000j;
  nominal_voltage 120;
  bill_mode HOURLY;
  monthly_fee 25.00;
  bill_day 1;
  power_market Market_1;
  parent R1-12-47-3_load_1_tn_C_2;
};
object house {
  name stripmallR1-12-47-3_load_1_C2;
  groupid Commercial;
  schedule_skew -3600;
  floor_area 2897;
  design_internal_gains 35596;
  number_of_doors 1;
  aspect_ratio 1.50;
  total_thermal_mass_per_floor_area 2.36;
  interior_surface_heat_transfer_coeff 0.59;
  interior_exterior_wall_ratio -0.1;
  exterior_floor_fraction 0.800;
  exterior_ceiling_fraction 1.000;
  Rwall 18.3;
  Rroof 19.0;
  Rfloor 40.00;
  Rdoors 3.0;
  exterior_wall_fraction 0.40;
  glazing_layers TWO;
  glass_type GLASS;
  glazing_treatment LOW_S;
  window_frame NONE;
  airchange_per_hour 1.76;
  window_wall_ratio 0.050;
  heating_system_type GAS;
  auxiliary_system_type NONE;
  fan_type ONE_SPEED;
  cooling_system_type ELECTRIC;
  air_temperature 68.14;
  mass_temperature 68.14;
  over_sizing_factor 0.1;
  cooling_COP 3.07;
  cooling_setpoint 85;
  heating_setpoint stripmall_heating;
  parent R1-12-47-3_load_1_tm_C_2;
};
object triplex_node {
  name R1-12-47-3_load_4_tn_C_2;
  phases CS;
  nominal_voltage 120;
};
object triplex_meter {
  name R1-12-47-3_load_4_tm_C_2;
  phases CS;
  groupid Commercial_Meter;
  meter_power_consumption 1.333333+7.000000j;
  nominal_voltage 120;
  bill_mode HOURLY;
  monthly_fee 25.00;
  bill_day 1;
  power_market Market_1;
  parent R1-12-47-3_load_4_tn_C_2;
};
object house {
  name stripmallR1-12-47-3_load_4_C2;
  groupid Commercial;
  schedule_skew -5400;
  floor_area 3116;
  design_internal_gains 38281;
  number_of_doors 1;
  aspect_ratio 1.50;
  total_thermal_mass_per_floor_area 2.36;
  interior_surface_heat_transfer_coeff 0.59;
  interior_exterior_wall_ratio -0.1;
  exterior_floor_fraction 0.800;
  exterior_ceiling_fraction 1.000;
  Rwall 18.3;
  Rroof 19.0;
  Rfloor 40.00;
  Rdoors 3.0;
  exterior_wall_fraction 0.40;
  glazing_layers TWO;
  glass_type GLASS;
  glazing_treatment LOW_S;
  window_frame NONE;
  airchange_per_hour 1.76;
  window_wall_ratio 0.050;
  heating_system_type GAS;
  auxiliary_system_type NONE;
  fan_type ONE_SPEED;
  cooling_system_type ELECTRIC;
  air_temperature 70.35;
  mass_temperature 70.35;
  over_sizing_factor 0.1;
  cooling_COP 3.46;
  cooling_setpoint 85;
  heating_setpoint stripmall_heating;
  parent R1-12-47-3_load_4_tm_C_2;
};
object ZIPload {
  name lights_R1-12-47-3_load_4_C_2;
  schedule_skew -5400;
  heatgain_fraction 1.0;
  power_fraction 0.40;
  impedance_fraction 0.20;
  current_fraction 0.40;
  power_pf 1.00;
  current_pf 1.00;
  impedance_pf 1.00;
  base_power stripmall_lights*3.42;
  parent stripmallR1-12-47-3_load_4_C2;
};
object triplex_node {
  name R1-12-47-3_load_20_tn_C_2;
  phases CS;
  nominal_voltage 120;
};
object triplex_meter {
  name R1-12-47-3_load_20_tm_C_2;
  phases CS;
  groupid Commercial_Meter;
  meter_power_consumption 1.333333+7.000000j;
  nominal_voltage 120;
  bill_mode HOURLY;
  monthly_fee 25.00;
  bill_day 1;
  power_market Market_1;
  parent R1-12-47-3_load_20_tn_C_2;
};
object house {
  name stripmallR1-12-47-3_load_20_C2;
  groupid Commercial;
  schedule_skew 3600;
  floor_area 2700;
  design_internal_gains 33173;
  number_of_doors 1;
  aspect_ratio 1.50;
  total_thermal_mass_per_floor_area 3.09;
  interior_surface_heat_transfer_coeff 0.59;
  interior_exterior_wall_ratio -0.1;
  exterior_floor_fraction 0.800;
  exterior_ceiling_fraction 1.000;
  Rwall 18.3;
  Rroof 19.0;
  Rfloor 40.00;
  Rdoors 3.0;
  exterior_wall_fraction 0.40;
  glazing_layers TWO;
  glass_type GLASS;
  glazing_treatment LOW_S;
  window_frame NONE;
  airchange_per_hour 1.76;
  window_wall_ratio 0.050;
  heating_system_type GAS;
  auxiliary_system_type NONE;
  fan_type ONE_SPEED;
  cooling_system_type ELECTRIC;
  air_temperature 68.01;
  mass_temperature 68.01;
  over_sizing_factor 0.1;
  cooling_COP 2.81;
  cooling_setpoint 85;
  heating_setpoint stripmall_heating;
  parent R1-12-47-3_load_20_tm_C_2;
};
object ZIPload {
  name occ_R1-12-47-3_load_20_C_2;
  schedule_skew 3600;
  heatgain_fraction 1.0;
  power_fraction 0.0;
  impedance_fraction 0.0;
  current_fraction 0.0;
  power_pf 1.0;
  base_power stripmall_occupancy*2.44;
  parent stripmallR1-12-47-3_load_20_C2;
};
object line_spacing {
  name line_spacing_16;
  distance_BC 57.6 in;
  distance_BN 84.0 in;
  distance_CN 84.0 in;
};
object node {
  phases ABCN;
  name R1-12-47-3_load_18_strip_node;
  nominal_voltage 480.000000;
};
object triplex_node {
  name R1-12-47-3_load_2_tn_A_1;
  phases AS;
  nominal_voltage 120;
};
object triplex_meter {
  name R1-12-47-3_load_2_tm_A_1;
  phases AS;
  groupid Commercial_Meter;
  meter_power_consumption 1.333333+7.000000j;
  nominal_voltage 120;
  bill_mode HOURLY;
  monthly_fee 25.00;
  bill_day 1;
  power_market Market_1;
  parent R1-12-47-3_load_2_tn_A_1;
};
object house {
  name stripmallR1-12-47-3_load_2_A1;
  groupid Commercial;
  schedule_skew 3600;
  floor_area 2466;
  design_internal_gains 30298;
  number_of_doors 1;
  aspect_ratio 1.50;
  total_thermal_mass_per_floor_area 4.45;
  interior_surface_heat_transfer_coeff 0.59;
  interior_exterior_wall_ratio -0.1;
  exterior_floor_fraction 0.800;
  exterior_ceiling_fraction 1.000;
  Rwall 18.3;
  Rroof 19.0;
  Rfloor 40.00;
  Rdoors 3.0;
  exterior_wall_fraction 0.40;
  glazing_layers TWO;
  glass_type GLASS;
  glazing_treatment LOW_S;
  window_frame NONE;
  airchange_per_hour 1.76;
  window_wall_ratio 0.050;
  heating_system_type GAS;
  auxiliary_system_type NONE;
  fan_type ONE_SPEED;
  cooling_system_type ELECTRIC;
  air_temperature 69.75;
  mass_temperature 69.75;
  over_sizing_factor 0.1;
  cooling_COP 2.55;
  cooling_setpoint 85;
  heating_setpoint stripmall_heating;
  parent R1-12-47-3_load_2_tm_A_1;
};
object controller {
  schedule_skew 3600;
  bid_mode OFF;
  control_mode RAMP;
  range_high 2.946;
  range_low -0.005;
  ramp_high 2.411;
  ramp_low 2.411;
  base_setpoint stripmall_cooling;
  period 900;
  average_target my_avg;
  standard_deviation_target my_std;
  target air_temperature;
  setpoint cooling_setpoint;
  demand last_cooling_load;
  deadband thermostat_deadband;
  total hvac_load;
  load hvac_load;
  state power_state;
  name controller_5;
  market Market_1;
  parent stripmallR1-12-47-3_load_2_A1;
};
object transformer_configuration {
  name CTTF_config_A_R1-12-47-3_load_14;
  connect_type SINGLE_PHASE_CENTER_TAPPED;
  install_type POLETOP;
  impedance 0.00033+0.0022j;
  shunt_impedance 100000+100000j;
  primary_voltage 480.000;
  secondary_voltage 207.846;
  powerA_rating 50 kVA;
};
object recorder {
  property past_market.clearing_price,my_avg,my_std;
  limit 702720;
  interval 900;
  file R1_1247_3_t6_markets.csv;
  name recorder_0;
  parent Market_1;
};
object transformer_configuration {
  name CTTF_config_C_R1-12-47-3_load_20;
  connect_type SINGLE_PHASE_CENTER_TAPPED;
  install_type POLETOP;
  impedance 0.00033+0.0022j;
  shunt_impedance 100000+100000j;
  primary_voltage 480.000;
  secondary_voltage 207.846;
  powerC_rating 100 kVA;
};
object billdump {
  runtime 2010-01-01 03:00:00;
  filename R1_1247_3_t6_bill_res12.csv;
  group Residential_Meter;
  meter_type TRIPLEX_METER;
  name billdump_21;
};
object billdump {
  runtime 2010-01-01 03:00:00;
  filename R1_1247_3_t6_bill_commSP12.csv;
  group Commercial_Meter;
  meter_type TRIPLEX_METER;
  name billdump_22;
};
object transformer_configuration {
  name transformer_configuration_132;
  connect_type SINGLE_PHASE_CENTER_TAPPED;
  install_type POLETOP;
  primary_voltage 7200 V;
  secondary_voltage 120 V;
  power_rating 450.0;
  powerB_rating 450.0;
  resistance 0.00033;
  reactance 0.00022;
  shunt_impedance 1226.160+1358.242j;
};
object overhead_line_conductor {
  name overhead_line_conductor_5;
  rating.summer.continuous 149.0;
  geometric_mean_radius 0.00663 ft;
  resistance 1.50000;
};
object line_configuration {
  name line_configuration_27;
  conductor_A overhead_line_conductor_5;
  conductor_B overhead_line_conductor_5;
  conductor_C overhead_line_conductor_5;
  conductor_N overhead_line_conductor_5;
  spacing line_spacing_10;
};
object line_spacing {
  name line_spacing_12;
  distance_CN 84.0 in;
};
object line_configuration {
  name line_configuration_20;
  conductor_C overhead_line_conductor_5;
  conductor_N overhead_line_conductor_5;
  spacing line_spacing_12;
};
object triplex_node {
  name R1-12-47-3_load_10_tn_B_1;
  phases BS;
  nominal_voltage 120;
};
object triplex_meter {
  name R1-12-47-3_load_10_tm_B_1;
  phases BS;
  groupid Commercial_Meter;
  meter_power_consumption 1.333333+7.000000j;
  nominal_voltage 120;
  bill_mode HOURLY;
  monthly_fee 25.00;
  bill_day 1;
  power_market Market_1;
  parent R1-12-47-3_load_10_tn_B_1;
};
object house {
  name stripmallR1-12-47-3_load_10_B1;
  groupid Commercial;
  schedule_skew 5400;
  floor_area 2202;
  design_internal_gains 27061;
  number_of_doors 1;
  aspect_ratio 1.50;
  total_thermal_mass_per_floor_area 3.18;
  interior_surface_heat_transfer_coeff 0.59;
  interior_exterior_wall_ratio -0.1;
  exterior_floor_fraction 0.800;
  exterior_ceiling_fraction 1.000;
  Rwall 18.3;
  Rroof 19.0;
  Rfloor 40.00;
  Rdoors 3.0;
  exterior_wall_fraction 0.40;
  glazing_layers TWO;
  glass_type GLASS;
  glazing_treatment LOW_S;
  window_frame NONE;
  airchange_per_hour 1.76;
  window_wall_ratio 0.050;
  heating_system_type GAS;
  auxiliary_system_type NONE;
  fan_type ONE_SPEED;
  cooling_system_type ELECTRIC;
  air_temperature 71.37;
  mass_temperature 71.37;
  over_sizing_factor 0.1;
  cooling_COP 2.67;
  cooling_setpoint 85;
  heating_setpoint stripmall_heating;
  parent R1-12-47-3_load_10_tm_B_1;
};
object controller {
  schedule_skew 5400;
  bid_mode OFF;
  control_mode RAMP;
  range_high 2.946;
  range_low -0.005;
  ramp_high 2.411;
  ramp_low 2.411;
  base_setpoint stripmall_cooling;
  period 900;
  average_target my_avg;
  standard_deviation_target my_std;
  target air_temperature;
  setpoint cooling_setpoint;
  demand last_cooling_load;
  deadband thermostat_deadband;
  total hvac_load;
  load hvac_load;
  state power_state;
  name controller_24;
  market Market_1;
  parent stripmallR1-12-47-3_load_10_B1;
};
object node {
  name R1-12-47-3_node_40;
  phases BN;
  voltage_B -3600-6235j;
  nominal_voltage 7200;
};
object node {
  name R1-12-47-3_node_36;
  phases ABCN;
  voltage_A 7200+0.0j;
  voltage_B -3600-6235j;
  voltage_C -3600+6235j;
  nominal_voltage 7200;
};
object fuse {
  name R1-12-47-3_fuse_7;
  phases BN;
  mean_replacement_time 1000;
  current_limit 50000;
  status CLOSED;
  from R1-12-47-3_node_36;
  to R1-12-47-3_node_40;
};
object house {
  name stripmallR1-12-47-3_load_16_B1;
  groupid Commercial;
  schedule_skew -1800;
  floor_area 2638;
  design_internal_gains 32413;
  number_of_doors 1;
  aspect_ratio 1.50;
  total_thermal_mass_per_floor_area 4.36;
  interior_surface_heat_transfer_coeff 0.59;
  interior_exterior_wall_ratio -0.1;
  exterior_floor_fraction 0.800;
  exterior_ceiling_fraction 1.000;
  Rwall 18.3;
  Rroof 19.0;
  Rfloor 40.00;
  Rdoors 3.0;
  exterior_wall_fraction 0.40;
  glazing_layers TWO;
  glass_type GLASS;
  glazing_treatment LOW_S;
  window_frame NONE;
  airchange_per_hour 1.76;
  window_wall_ratio 0.050;
  heating_system_type GAS;
  auxiliary_system_type NONE;
  fan_type ONE_SPEED;
  cooling_system_type ELECTRIC;
  air_temperature 69.26;
  mass_temperature 69.26;
  over_sizing_factor 0.1;
  cooling_COP 3.03;
  cooling_setpoint 85;
  heating_setpoint stripmall_heating;
  parent R1-12-47-3_load_16_tm_B_1;
};
object controller {
  schedule_skew -1800;
  bid_mode OFF;
  control_mode RAMP;
  range_high 2.946;
  range_low -0.005;
  ramp_high 2.411;
  ramp_low 2.411;
  base_setpoint stripmall_cooling;
  period 900;
  average_target my_avg;
  standard_deviation_target my_std;
  target air_temperature;
  setpoint cooling_setpoint;
  demand last_cooling_load;
  deadband thermostat_deadband;
  total hvac_load;
  load hvac_load;
  state power_state;
  name controller_33;
  market Market_1;
  parent stripmallR1-12-47-3_load_16_B1;
};
object triplex_node {
  name R1-12-47-3_load_21_tn_B_1;
  phases BS;
  nominal_voltage 120;
};
object triplex_meter {
  name R1-12-47-3_load_21_tm_B_1;
  phases BS;
  groupid Commercial_Meter;
  meter_power_consumption 1.333333+7.000000j;
  nominal_voltage 120;
  bill_mode HOURLY;
  monthly_fee 25.00;
  bill_day 1;
  power_market Market_1;
  parent R1-12-47-3_load_21_tn_B_1;
};
object house {
  name stripmallR1-12-47-3_load_21_B1;
  groupid Commercial;
  schedule_skew 3600;
  floor_area 2208;
  design_internal_gains 27126;
  number_of_doors 1;
  aspect_ratio 1.50;
  total_thermal_mass_per_floor_area 3.23;
  interior_surface_heat_transfer_coeff 0.59;
  interior_exterior_wall_ratio -0.1;
  exterior_floor_fraction 0.800;
  exterior_ceiling_fraction 1.000;
  Rwall 18.3;
  Rroof 19.0;
  Rfloor 40.00;
  Rdoors 3.0;
  exterior_wall_fraction 0.40;
  glazing_layers TWO;
  glass_type GLASS;
  glazing_treatment LOW_S;
  window_frame NONE;
  airchange_per_hour 1.76;
  window_wall_ratio 0.050;
  heating_system_type GAS;
  auxiliary_system_type NONE;
  fan_type ONE_SPEED;
  cooling_system_type ELECTRIC;
  air_temperature 71.31;
  mass_temperature 71.31;
  over_sizing_factor 0.1;
  cooling_COP 2.88;
  cooling_setpoint 85;
  heating_setpoint stripmall_heating;
  parent R1-12-47-3_load_21_tm_B_1;
};
object ZIPload {
  name occ_R1-12-47-3_load_21_B_1;
  schedule_skew 3600;
  heatgain_fraction 1.0;
  power_fraction 0.0;
  impedance_fraction 0.0;
  current_fraction 0.0;
  power_pf 1.0;
  base_power stripmall_occupancy*1.87;
  parent stripmallR1-12-47-3_load_21_B1;
};
object triplex_node {
  name R1-12-47-3_load_20_tn_B_2;
  phases BS;
  nominal_voltage 120;
};
object triplex_meter {
  name R1-12-47-3_load_20_tm_B_2;
  phases BS;
  groupid Commercial_Meter;
  meter_power_consumption 1.333333+7.000000j;
  nominal_voltage 120;
  bill_mode HOURLY;
  monthly_fee 25.00;
  bill_day 1;
  power_market Market_1;
  parent R1-12-47-3_load_20_tn_B_2;
};
object house {
  name stripmallR1-12-47-3_load_20_B2;
  groupid Commercial;
  schedule_skew -1800;
  floor_area 2378;
  design_internal_gains 29218;
  number_of_doors 1;
  aspect_ratio 1.50;
  total_thermal_mass_per_floor_area 4.30;
  interior_surface_heat_transfer_coeff 0.59;
  interior_exterior_wall_ratio -0.1;
  exterior_floor_fraction 0.800;
  exterior_ceiling_fraction 1.000;
  Rwall 18.3;
  Rroof 19.0;
  Rfloor 40.00;
  Rdoors 3.0;
  exterior_wall_fraction 0.40;
  glazing_layers TWO;
  glass_type GLASS;
  glazing_treatment LOW_S;
  window_frame NONE;
  airchange_per_hour 1.76;
  window_wall_ratio 0.050;
  heating_system_type GAS;
  auxiliary_system_type NONE;
  fan_type ONE_SPEED;
  cooling_system_type ELECTRIC;
  air_temperature 69.79;
  mass_temperature 69.79;
  over_sizing_factor 0.1;
  cooling_COP 2.98;
  cooling_setpoint 85;
  heating_setpoint stripmall_heating;
  parent R1-12-47-3_load_20_tm_B_2;
};
object ZIPload {
  name ext_R1-12-47-3_load_20_B_2;
  schedule_skew -1800;
  heatgain_fraction 0.0;
  power_fraction 0.40;
  impedance_fraction 0.20;
  current_fraction 0.40;
  power_pf 1.00;
  current_pf 1.00;
  impedance_pf 1.00;
  base_power stripmall_exterior*2.14;
  parent stripmallR1-12-47-3_load_20_B2;
};
object triplex_line_configuration {
  name commercial_line_config;
  insulation_thickness 0.08;
  diameter 0.522;
};
object triplex_line_conductor {
  resistance 0.48;
  geometric_mean_radius 0.0158;
  name triplex_line_conductor0;
  parent commercial_line_config;
};
object triplex_node {
  name R1-12-47-3_load_20_tn_C_1;
  phases CS;
  nominal_voltage 120;
};
object triplex_meter {
  name R1-12-47-3_load_20_tm_C_1;
  phases CS;
  groupid Commercial_Meter;
  meter_power_consumption 1.333333+7.000000j;
  nominal_voltage 120;
  bill_mode HOURLY;
  monthly_fee 25.00;
  bill_day 1;
  power_market Market_1;
  parent R1-12-47-3_load_20_tn_C_1;
};
object house {
  name stripmallR1-12-47-3_load_20_C1;
  groupid Commercial;
  schedule_skew 1800;
  floor_area 2700;
  design_internal_gains 33173;
  number_of_doors 1;
  aspect_ratio 1.50;
  total_thermal_mass_per_floor_area 3.09;
  interior_surface_heat_transfer_coeff 0.59;
  interior_exterior_wall_ratio -0.1;
  exterior_floor_fraction 0.800;
  exterior_ceiling_fraction 1.000;
  Rwall 18.3;
  Rroof 19.0;
  Rfloor 40.00;
  Rdoors 3.0;
  exterior_wall_fraction 0.40;
  glazing_layers TWO;
  glass_type GLASS;
  glazing_treatment LOW_S;
  window_frame NONE;
  airchange_per_hour 1.76;
  window_wall_ratio 0.050;
  heating_system_type GAS;
  auxiliary_system_type NONE;
  fan_type ONE_SPEED;
  cooling_system_type ELECTRIC;
  air_temperature 70.29;
  mass_temperature 70.29;
  over_sizing_factor 0.1;
  cooling_COP 3.17;
  cooling_setpoint 85;
  heating_setpoint stripmall_heating;
  parent R1-12-47-3_load_20_tm_C_1;
};
object ZIPload {
  name wh_R1-12-47-3_load_20_C_1;
  schedule_skew 1800;
  heatgain_fraction 1.0;
  power_fraction 0.0;
  impedance_fraction 0.0;
  current_fraction 0.0;
  power_pf 1.0;
  base_power stripmall_gas*2.98;
  parent stripmallR1-12-47-3_load_20_C1;
};
object meter {
  name R1-12-47-3_meter_10;
  phases ABCN;
  nominal_voltage 480;
};
object node {
  name R1-12-47-3_node_27;
  phases ABCN;
  voltage_A 7200+0.0j;
  voltage_B -3600-6235j;
  voltage_C -3600+6235j;
  nominal_voltage 7200;
};
object transformer {
  groupid Distribution_Trans;
  name R1-12-47-3_xfmr_11;
  phases ABCN;
  from R1-12-47-3_node_27;
  to R1-12-47-3_meter_10;
  configuration transformer_configuration_142;
};
object line_spacing {
  name line_spacing_13;
  distance_AN 84.0 in;
};
object line_configuration {
  name line_configuration_32;
  conductor_A overhead_line_conductor_5;
  conductor_N overhead_line_conductor_5;
  spacing line_spacing_13;
};
object node {
  name R1-12-47-3_node_29;
  phases AN;
  voltage_A 7200+0.0j;
  nominal_voltage 7200;
};
object node {
  name R1-12-47-3_node_28;
  phases AN;
  voltage_A 7200+0.0j;
  nominal_voltage 7200;
};
object overhead_line {
  groupid Distribution_Line;
  name R1-12-47-3_ol_20;
  phases AN;
  length 111.674;
  from R1-12-47-3_node_28;
  to R1-12-47-3_node_29;
  configuration line_configuration_32;
};
object triplex_node {
  name R1-12-47-3_load_19_tn_A_1;
  phases AS;
  nominal_voltage 120;
};
object triplex_node {
  name R1-12-47-3_load_3_tn_A_1;
  phases AS;
  nominal_voltage 120;
};
object triplex_node {
  name R1-12-47-3_load_20_tn_A_2;
  phases AS;
  nominal_voltage 120;
};
object triplex_meter {
  name R1-12-47-3_load_20_tm_A_2;
  phases AS;
  groupid Commercial_Meter;
  meter_power_consumption 1.333333+7.000000j;
  nominal_voltage 120;
  bill_mode HOURLY;
  monthly_fee 25.00;
  bill_day 1;
  power_market Market_1;
  parent R1-12-47-3_load_20_tn_A_2;
};
object house {
  name stripmallR1-12-47-3_load_20_A2;
  groupid Commercial;
  schedule_skew 0;
  floor_area 2798;
  design_internal_gains 34382;
  number_of_doors 1;
  aspect_ratio 1.50;
  total_thermal_mass_per_floor_area 5.68;
  interior_surface_heat_transfer_coeff 0.59;
  interior_exterior_wall_ratio -0.1;
  exterior_floor_fraction 0.800;
  exterior_ceiling_fraction 1.000;
  Rwall 18.3;
  Rroof 19.0;
  Rfloor 40.00;
  Rdoors 3.0;
  exterior_wall_fraction 0.40;
  glazing_layers TWO;
  glass_type GLASS;
  glazing_treatment LOW_S;
  window_frame NONE;
  airchange_per_hour 1.76;
  window_wall_ratio 0.050;
  heating_system_type GAS;
  auxiliary_system_type NONE;
  fan_type ONE_SPEED;
  cooling_system_type ELECTRIC;
  air_temperature 71.49;
  mass_temperature 71.49;
  over_sizing_factor 0.1;
  cooling_COP 3.23;
  cooling_setpoint 85;
  heating_setpoint stripmall_heating;
  parent R1-12-47-3_load_20_tm_A_2;
};
object ZIPload {
  name lights_R1-12-47-3_load_20_A_2;
  schedule_skew 0;
  heatgain_fraction 1.0;
  power_fraction 0.40;
  impedance_fraction 0.20;
  current_fraction 0.40;
  power_pf 1.00;
  current_pf 1.00;
  impedance_pf 1.00;
  base_power stripmall_lights*2.42;
  parent stripmallR1-12-47-3_load_20_A2;
};
object transformer_configuration {
  name transformer_configuration_144;
  connect_type WYE_WYE;
  install_type POLETOP;
  primary_voltage 12470.000 V;
  secondary_voltage 480 V;
  power_rating 25.0;
  powerA_rating 25.0;
  resistance 0.00400;
  reactance 0.02000;
  shunt_impedance 339.610+346.401j;
};
object meter {
  name R1-12-47-3_meter_12;
  phases AN;
  nominal_voltage 480;
};
object transformer {
  groupid Distribution_Trans;
  name R1-12-47-3_xfmr_13;
  phases AN;
  from R1-12-47-3_node_29;
  to R1-12-47-3_meter_12;
  configuration transformer_configuration_144;
};
object triplex_node {
  name R1-12-47-3_load_7_tn_A_1;
  phases AS;
  nominal_voltage 120;
};
object triplex_meter {
  name R1-12-47-3_load_7_tm_A_1;
  phases AS;
  groupid Commercial_Meter;
  meter_power_consumption 1.333333+7.000000j;
  nominal_voltage 120;
  bill_mode HOURLY;
  monthly_fee 25.00;
  bill_day 1;
  power_market Market_1;
  parent R1-12-47-3_load_7_tn_A_1;
};
object transformer_configuration {
  name CTTF_config_A_R1-12-47-3_load_21;
  connect_type SINGLE_PHASE_CENTER_TAPPED;
  install_type POLETOP;
  impedance 0.00033+0.0022j;
  shunt_impedance 100000+100000j;
  primary_voltage 480.000;
  secondary_voltage 207.846;
  powerA_rating 50 kVA;
};
object triplex_node {
  name R1-12-47-3_load_21_tn_A_1;
  phases AS;
  nominal_voltage 120;
};
object transformer {
  name R1-12-47-3_load_21_CTTF_A_1;
  phases AS;
  groupid Distribution_Trans;
  from R1-12-47-3_load_21_strip_node;
  to R1-12-47-3_load_21_tn_A_1;
  configuration CTTF_config_A_R1-12-47-3_load_21;
};
object node {
  phases ABCN;
  name R1-12-47-3_load_20_strip_node;
  nominal_voltage 480.000000;
};
object transformer {
  name R1-12-47-3_load_20_CTTF_C_2;
  phases CS;
  groupid Distribution_Trans;
  from R1-12-47-3_load_20_strip_node;
  to R1-12-47-3_load_20_tn_C_2;
  configuration CTTF_config_C_R1-12-47-3_load_20;
};
object line_spacing {
  name line_spacing_commABC;
  distance_AB 53.19999999996 in;
  distance_BC 53.19999999996 in;
  distance_AC 53.19999999996 in;
  distance_AN 69.80000000004 in;
  distance_BN 69.80000000004 in;
  distance_CN 69.80000000004 in;
};
object overhead_line_conductor {
  name overhead_line_conductor_comm;
  rating.summer.continuous 443.0;
  geometric_mean_radius 0.02270 ft;
  resistance 0.05230;
};
object line_configuration {
  name line_configuration_commABC;
  conductor_A overhead_line_conductor_comm;
  conductor_B overhead_line_conductor_comm;
  conductor_C overhead_line_conductor_comm;
  conductor_N overhead_line_conductor_comm;
  spacing line_spacing_commABC;
};
object node {
  name R1-12-47-3_load_21;
  phases ABCN;
  nominal_voltage 480.00;
  parent R1-12-47-3_meter_21;
};
object overhead_line {
  phases ABCN;
  length 50ft;
  name overhead_line_19;
  from R1-12-47-3_load_21;
  to R1-12-47-3_load_21_strip_node;
  configuration line_configuration_commABC;
};
object node {
  name R1-12-47-3_node_10;
  phases ABCN;
  voltage_A 7200+0.0j;
  voltage_B -3600-6235j;
  voltage_C -3600+6235j;
  nominal_voltage 7200;
};
object triplex_meter {
  phases BS;
  name tpm7_R1-12-47-3_tm_1;
  groupid Residential_Meter;
  meter_power_consumption 2+11j;
  bill_mode HOURLY;
  monthly_fee 10.00;
  bill_day 1;
  nominal_voltage 120;
  power_market Market_1;
  parent R1-12-47-3_tm_1;
};
object house {
  name house7_R1-12-47-3_tm_1;
  groupid Residential;
  schedule_skew -1412;
  floor_area 919;
  number_of_stories 1;
  ceiling_height 8;
  over_sizing_factor 0.1;
  Rroof 19.61;
  Rwall 10.26;
  Rfloor 17.39;
  glazing_layers 2;
  glass_type 2;
  glazing_treatment 1;
  window_frame 2;
  Rdoors 3.51;
  airchange_per_hour 0.77;
  cooling_COP 2.9;
  air_temperature 69.83;
  mass_temperature 69.83;
  total_thermal_mass_per_floor_area 3.645;
  heating_system_type RESISTANCE;
  cooling_system_type NONE;
  breaker_amps 1000;
  hvac_breaker_rating 1000;
  cooling_setpoint 73.40;
  heating_setpoint 70.40;
  parent tpm7_R1-12-47-3_tm_1;
};
object ZIPload {
  schedule_skew -1412;
  base_power unresponsive_loads*0.75;
  heatgain_fraction 0.900;
  power_pf 1.000;
  current_pf 1.000;
  impedance_pf 1.000;
  impedance_fraction 0.200000;
  current_fraction 0.400000;
  power_fraction 0.400000;
  name ZIPload_11;
  parent house7_R1-12-47-3_tm_1;
};
object meter {
  name R1-12-47-3_meter_14;
  phases AN;
  nominal_voltage 480;
};
object node {
  name R1-12-47-3_load_14;
  phases AN;
  nominal_voltage 480.00;
  parent R1-12-47-3_meter_14;
};
object triplex_meter {
  name R1-12-47-3_load_3_tm_A_1;
  phases AS;
  groupid Commercial_Meter;
  meter_power_consumption 1.333333+7.000000j;
  nominal_voltage 120;
  bill_mode HOURLY;
  monthly_fee 25.00;
  bill_day 1;
  power_market Market_1;
  parent R1-12-47-3_load_3_tn_A_1;
};
object house {
  name stripmallR1-12-47-3_load_3_A1;
  groupid Commercial;
  schedule_skew 1800;
  floor_area 1967;
  design_internal_gains 24166;
  number_of_doors 1;
  aspect_ratio 1.50;
  total_thermal_mass_per_floor_area 2.85;
  interior_surface_heat_transfer_coeff 0.59;
  interior_exterior_wall_ratio -0.1;
  exterior_floor_fraction 0.800;
  exterior_ceiling_fraction 1.000;
  Rwall 18.3;
  Rroof 19.0;
  Rfloor 40.00;
  Rdoors 3.0;
  exterior_wall_fraction 0.40;
  glazing_layers TWO;
  glass_type GLASS;
  glazing_treatment LOW_S;
  window_frame NONE;
  airchange_per_hour 1.76;
  window_wall_ratio 0.050;
  heating_system_type GAS;
  auxiliary_system_type NONE;
  fan_type ONE_SPEED;
  cooling_system_type ELECTRIC;
  air_temperature 69.29;
  mass_temperature 69.29;
  over_sizing_factor 0.1;
  cooling_COP 2.57;
  cooling_setpoint 85;
  heating_setpoint stripmall_heating;
  parent R1-12-47-3_load_3_tm_A_1;
};
object ZIPload {
  name ext_R1-12-47-3_load_3_A_1;
  schedule_skew 1800;
  heatgain_fraction 0.0;
  power_fraction 0.40;
  impedance_fraction 0.20;
  current_fraction 0.40;
  power_pf 1.00;
  current_pf 1.00;
  impedance_pf 1.00;
  base_power stripmall_exterior*1.91;
  parent stripmallR1-12-47-3_load_3_A1;
};
object node {
  name R1-12-47-3_node_11;
  phases ACN;
  voltage_A 7200+0.0j;
  voltage_C -3600+6235j;
  nominal_voltage 7200;
};
object triplex_node {
  name R1-12-47-3_load_11_tn_A_3;
  phases AS;
  nominal_voltage 120;
};
object triplex_meter {
  name R1-12-47-3_load_11_tm_A_3;
  phases AS;
  groupid Commercial_Meter;
  meter_power_consumption 1.333333+7.000000j;
  nominal_voltage 120;
  bill_mode HOURLY;
  monthly_fee 25.00;
  bill_day 1;
  power_market Market_1;
  parent R1-12-47-3_load_11_tn_A_3;
};
object house {
  name stripmallR1-12-47-3_load_11_A3;
  groupid Commercial;
  schedule_skew -1800;
  floor_area 1112;
  design_internal_gains 13663;
  number_of_doors 1;
  aspect_ratio 3.00;
  total_thermal_mass_per_floor_area 2.43;
  interior_surface_heat_transfer_coeff 0.59;
  interior_exterior_wall_ratio -0.4;
  exterior_floor_fraction 2.000;
  exterior_ceiling_fraction 1.000;
  Rwall 18.3;
  Rroof 19.0;
  Rfloor 40.00;
  Rdoors 3.0;
  exterior_wall_fraction 0.63;
  glazing_layers TWO;
  glass_type GLASS;
  glazing_treatment LOW_S;
  window_frame NONE;
  airchange_per_hour 1.76;
  window_wall_ratio 0.030;
  heating_system_type GAS;
  auxiliary_system_type NONE;
  fan_type ONE_SPEED;
  cooling_system_type ELECTRIC;
  air_temperature 71.87;
  mass_temperature 71.87;
  over_sizing_factor 0.1;
  cooling_COP 2.63;
  cooling_setpoint 85;
  heating_setpoint stripmall_heating;
  parent R1-12-47-3_load_11_tm_A_3;
};
object ZIPload {
  name lights_R1-12-47-3_load_11_A_3;
  schedule_skew -1800;
  heatgain_fraction 1.0;
  power_fraction 0.40;
  impedance_fraction 0.20;
  current_fraction 0.40;
  power_pf 1.00;
  current_pf 1.00;
  impedance_pf 1.00;
  base_power stripmall_lights*1.21;
  parent stripmallR1-12-47-3_load_11_A3;
};
object triplex_node {
  name R1-12-47-3_load_18_tn_A_2;
  phases AS;
  nominal_voltage 120;
};
object triplex_meter {
  name R1-12-47-3_load_18_tm_A_2;
  phases AS;
  groupid Commercial_Meter;
  meter_power_consumption 1.333333+7.000000j;
  nominal_voltage 120;
  bill_mode HOURLY;
  monthly_fee 25.00;
  bill_day 1;
  power_market Market_1;
  parent R1-12-47-3_load_18_tn_A_2;
};
object billdump {
  runtime 2010-02-01 03:00:00;
  filename R1_1247_3_t6_bill_res13.csv;
  group Residential_Meter;
  meter_type TRIPLEX_METER;
  name billdump_23;
};
object billdump {
  runtime 2010-02-01 03:00:00;
  filename R1_1247_3_t6_bill_commSP13.csv;
  group Commercial_Meter;
  meter_type TRIPLEX_METER;
  name billdump_24;
};
object player {
  name CPP_days_R1;
  file CPP_days_R1.player;
};
object player {
  file R1_1247_3_t0_TOU.player;
  loop 10;
  property current_market.clearing_price;
  name player0;
  parent Market_1;
};
object climate {
  name TN-Nashville;
  tmyfile TN-Nashville.tmy2;
  interpolate QUADRATIC;
};
object regulator_configuration {
  name feeder_reg_cfg;
  Control OUTPUT_VOLTAGE;
  band_center 7500.0;
  band_width 120;
  connect_type WYE_WYE;
  time_delay 30;
  raise_taps 16;
  lower_taps 16;
  regulation 0.10;
  tap_pos_A 0;
  tap_pos_B 0;
  tap_pos_C 0;
};
object overhead_line_conductor {
  name overhead_line_conductor_3;
  rating.summer.continuous 334.0;
  geometric_mean_radius 0.00814 ft;
  resistance 0.56300;
};
object line_configuration {
  name line_configuration_18;
  conductor_A overhead_line_conductor_3;
  conductor_B overhead_line_conductor_3;
  conductor_C overhead_line_conductor_3;
  conductor_N overhead_line_conductor_3;
  spacing line_spacing_10;
};
object line_spacing {
  name line_spacing_11;
  distance_AC 57.6 in;
  distance_AN 84.0 in;
  distance_CN 84.0 in;
};
object overhead_line_conductor {
  name overhead_line_conductor_4;
  rating.summer.continuous 120.0;
  geometric_mean_radius 0.00700 ft;
  resistance 2.40970;
};
object line_configuration {
  name line_configuration_19;
  conductor_A overhead_line_conductor_4;
  conductor_C overhead_line_conductor_4;
  conductor_N overhead_line_conductor_4;
  spacing line_spacing_11;
};
object line_configuration {
  name line_configuration_21;
  conductor_A overhead_line_conductor_4;
  conductor_B overhead_line_conductor_4;
  conductor_C overhead_line_conductor_4;
  conductor_N overhead_line_conductor_4;
  spacing line_spacing_10;
};
object line_configuration {
  name line_configuration_22;
  conductor_A overhead_line_conductor_5;
  conductor_C overhead_line_conductor_5;
  conductor_N overhead_line_conductor_5;
  spacing line_spacing_11;
};
object line_configuration {
  name line_configuration_23;
  conductor_C overhead_line_conductor_4;
  conductor_N overhead_line_conductor_4;
  spacing line_spacing_12;
};
object line_configuration {
  name line_configuration_25;
  conductor_A overhead_line_conductor_6;
  conductor_N overhead_line_conductor_6;
  spacing line_spacing_13;
};
object overhead_line_conductor {
  name overhead_line_conductor_7;
  rating.summer.continuous 230.0;
  geometric_mean_radius 0.01203 ft;
  resistance 0.95300;
};
object line_configuration {
  name line_configuration_26;
  conductor_A overhead_line_conductor_7;
  conductor_B overhead_line_conductor_7;
  conductor_C overhead_line_conductor_7;
  conductor_N overhead_line_conductor_7;
  spacing line_spacing_10;
};
object line_spacing {
  name line_spacing_14;
  distance_BC 0.0 in;
  distance_BN 0.0 in;
  distance_CN 0.0 in;
};
object underground_line_conductor {
  name underground_line_conductor_8;
  rating.summer.continuous 142.0;
  outer_diameter 1.27;
  conductor_gmr 0.01142 ft;
  conductor_diameter 0.362;
  conductor_resistance 0.88704;
  neutral_gmr 0.0489686771417213 ft;
  neutral_resistance 13.86528;
  neutral_diameter 0.0641;
  neutral_strands 16.0;
  shield_gmr 0.00;
  shield_resistance 0.00;
};
object line_configuration {
  name line_configuration_28;
  conductor_B underground_line_conductor_8;
  conductor_C underground_line_conductor_8;
  conductor_N underground_line_conductor_8;
  spacing line_spacing_14;
};
object line_spacing {
  name line_spacing_15;
  distance_BN 0.0 in;
};
object line_configuration {
  name line_configuration_29;
  conductor_B underground_line_conductor_8;
  conductor_N underground_line_conductor_8;
  spacing line_spacing_15;
};
object line_configuration {
  name line_configuration_30;
  conductor_B overhead_line_conductor_5;
  conductor_C overhead_line_conductor_5;
  conductor_N overhead_line_conductor_5;
  spacing line_spacing_16;
};
object line_configuration {
  name line_configuration_31;
  conductor_A overhead_line_conductor_4;
  conductor_N overhead_line_conductor_4;
  spacing line_spacing_13;
};
object line_configuration {
  name line_configuration_33;
  conductor_A underground_line_conductor_8;
  conductor_B underground_line_conductor_8;
  conductor_C underground_line_conductor_8;
  conductor_N underground_line_conductor_8;
  spacing line_spacing_9;
};
object transformer_configuration {
  name transformer_configuration_134;
  connect_type WYE_WYE;
  install_type PADMOUNT;
  primary_voltage 12470.000 V;
  secondary_voltage 480 V;
  power_rating 50.0;
  powerC_rating 50.0;
  resistance 0.00200;
  reactance 0.01000;
  shunt_impedance 391.760+390.395j;
};
object transformer_configuration {
  name transformer_configuration_135;
  connect_type WYE_WYE;
  install_type PADMOUNT;
  primary_voltage 12470.000 V;
  secondary_voltage 480 V;
  power_rating 45.0;
  powerA_rating 15.0;
  powerB_rating 15.0;
  powerC_rating 15.0;
  resistance 0.00222;
  reactance 0.01111;
  shunt_impedance 381.330+362.111j;
};
object transformer_configuration {
  name transformer_configuration_136;
  connect_type WYE_WYE;
  install_type POLETOP;
  primary_voltage 12470.000 V;
  secondary_voltage 480 V;
  power_rating 25.0;
  powerA_rating 0.0;
  powerC_rating 25.0;
  resistance 0.00400;
  reactance 0.02000;
  shunt_impedance 339.610+298.041j;
};
object transformer_configuration {
  name transformer_configuration_138;
  connect_type WYE_WYE;
  install_type POLETOP;
  primary_voltage 12470.000 V;
  secondary_voltage 480 V;
  power_rating 75.0;
  powerA_rating 0.0;
  powerB_rating 0.0;
  powerC_rating 75.0;
  resistance 0.00133;
  reactance 0.00667;
  shunt_impedance 443.910+486.502j;
};
object transformer_configuration {
  name transformer_configuration_139;
  connect_type WYE_WYE;
  install_type POLETOP;
  primary_voltage 12470.000 V;
  secondary_voltage 480 V;
  power_rating 37.5;
  powerA_rating 37.5;
  resistance 0.00267;
  reactance 0.01333;
  shunt_impedance 365.685+353.218j;
};
object transformer_configuration {
  name transformer_configuration_140;
  connect_type WYE_WYE;
  install_type POLETOP;
  primary_voltage 12470.000 V;
  secondary_voltage 480 V;
  power_rating 75.0;
  powerA_rating 25.0;
  powerB_rating 25.0;
  powerC_rating 25.0;
  resistance 0.00133;
  reactance 0.00667;
  shunt_impedance 443.910+436.216j;
};
object transformer_configuration {
  name transformer_configuration_141;
  connect_type WYE_WYE;
  install_type POLETOP;
  primary_voltage 12470.000 V;
  secondary_voltage 480 V;
  power_rating 75.0;
  powerB_rating 75.0;
  resistance 0.00133;
  reactance 0.00667;
  shunt_impedance 443.910+471.268j;
};
object transformer_configuration {
  name transformer_configuration_143;
  connect_type WYE_WYE;
  install_type POLETOP;
  primary_voltage 12470.000 V;
  secondary_voltage 480 V;
  power_rating 100.0;
  powerA_rating 100.0;
  resistance 0.00100;
  reactance 0.00500;
  shunt_impedance 496.060+425.773j;
};
object transformer_configuration {
  name transformer_configuration_145;
  connect_type WYE_WYE;
  install_type POLETOP;
  primary_voltage 12470.000 V;
  secondary_voltage 480 V;
  power_rating 50.0;
  powerB_rating 50.0;
  resistance 0.00200;
  reactance 0.01000;
  shunt_impedance 391.760+399.432j;
};
object transformer_configuration {
  name transformer_configuration_146;
  connect_type WYE_WYE;
  install_type POLETOP;
  primary_voltage 12470.000 V;
  secondary_voltage 480 V;
  power_rating 175.0;
  powerB_rating 175.0;
  resistance 0.00057;
  reactance 0.00286;
  shunt_impedance 652.510+642.648j;
};
object transformer_configuration {
  name transformer_configuration_147;
  connect_type WYE_WYE;
  install_type POLETOP;
  primary_voltage 12470.000 V;
  secondary_voltage 480 V;
  power_rating 150.0;
  powerA_rating 50.0;
  powerB_rating 50.0;
  powerC_rating 50.0;
  resistance 0.00067;
  reactance 0.00333;
  shunt_impedance 600.360+653.959j;
};
object transformer_configuration {
  name transformer_configuration_148;
  connect_type WYE_WYE;
  install_type POLETOP;
  primary_voltage 12470.000 V;
  secondary_voltage 480 V;
  power_rating 112.5;
  powerA_rating 37.5;
  powerB_rating 37.5;
  powerC_rating 37.5;
  resistance 0.00089;
  reactance 0.00444;
  shunt_impedance 522.135+503.119j;
};
object triplex_line_conductor {
  name triplex_4/0 AA;
  resistance 0.48;
  geometric_mean_radius 0.0158;
};
object triplex_line_configuration {
  name triplex_line_configuration_1;
  insulation_thickness 0.08;
  diameter 0.522;
  conductor_1 triplex_4/0 AA;
  conductor_2 triplex_4/0 AA;
  conductor_N triplex_4/0 AA;
};
object transformer_configuration {
  name trans_config_to_feeder;
  connect_type WYE_WYE;
  install_type PADMOUNT;
  primary_voltage 230000;
  secondary_voltage 12470.000;
  power_rating 1.4 MVA;
  impedance 0.00033+0.0022j;
};
object meter {
  name network_node;
  bustype SWING;
  nominal_voltage 230000;
  phases ABCN;
};
object player {
  property voltage_A;
  loop 100;
  file V_A.player;
  name player_0;
  parent network_node;
};
object player {
  property voltage_B;
  loop 100;
  file V_B.player;
  name player_1;
  parent network_node;
};
object player {
  property voltage_C;
  loop 100;
  file V_C.player;
  name player_2;
  parent network_node;
};
object node {
  name R1-12-47-3_node_53;
  phases ABCN;
  nominal_voltage 7200;
  voltage_A 7200+0.0j;
  voltage_B -3600-6235j;
  voltage_C -3600+6235j;
};
object transformer {
  name substation_transformer;
  phases ABCN;
  from network_node;
  to R1-12-47-3_node_53;
  configuration trans_config_to_feeder;
};
object meter {
  name R1-12-47-3_meter_22;
  phases ABCN;
  nominal_voltage 7200;
  voltage_A 7200+0.0j;
  voltage_B -3600-6235j;
  voltage_C -3600+6235j;
};
object regulator {
  name R1-12-47-3_reg_1;
  phases ABCN;
  from R1-12-47-3_node_53;
  to R1-12-47-3_meter_22;
  configuration feeder_reg_cfg;
};
object node {
  name R1-12-47-3_node_20;
  phases AN;
  voltage_A 7200+0.0j;
  nominal_voltage 7200;
};
object node {
  name R1-12-47-3_node_19;
  phases ABCN;
  voltage_A 7200+0.0j;
  voltage_B -3600-6235j;
  voltage_C -3600+6235j;
  nominal_voltage 7200;
};
object fuse {
  name R1-12-47-3_fuse_1;
  phases AN;
  mean_replacement_time 1000;
  current_limit 50000;
  status CLOSED;
  from R1-12-47-3_node_19;
  to R1-12-47-3_node_20;
};
object node {
  name R1-12-47-3_node_23;
  phases BCN;
  voltage_B -3600-6235j;
  voltage_C -3600+6235j;
  nominal_voltage 7200;
};
object node {
  name R1-12-47-3_node_21;
  phases ABCN;
  voltage_A 7200+0.0j;
  voltage_B -3600-6235j;
  voltage_C -3600+6235j;
  nominal_voltage 7200;
};
object fuse {
  name R1-12-47-3_fuse_2;
  phases BCN;
  mean_replacement_time 1000;
  current_limit 50000;
  status CLOSED;
  from R1-12-47-3_node_21;
  to R1-12-47-3_node_23;
};
object fuse {
  name R1-12-47-3_fuse_3;
  phases AN;
  mean_replacement_time 1000;
  current_limit 50000;
  status CLOSED;
  from R1-12-47-3_node_27;
  to R1-12-47-3_node_28;
};
object node {
  name R1-12-47-3_node_33;
  phases AN;
  voltage_A 7200+0.0j;
  nominal_voltage 7200;
};
object node {
  name R1-12-47-3_node_32;
  phases ABCN;
  voltage_A 7200+0.0j;
  voltage_B -3600-6235j;
  voltage_C -3600+6235j;
  nominal_voltage 7200;
};
object fuse {
  name R1-12-47-3_fuse_4;
  phases AN;
  mean_replacement_time 1000;
  current_limit 50000;
  status CLOSED;
  from R1-12-47-3_node_32;
  to R1-12-47-3_node_33;
};
object node {
  name R1-12-47-3_node_35;
  phases ABCN;
  voltage_A 7200+0.0j;
  voltage_B -3600-6235j;
  voltage_C -3600+6235j;
  nominal_voltage 7200;
};
object fuse {
  name R1-12-47-3_fuse_5;
  phases ABCN;
  mean_replacement_time 1000;
  current_limit 50000;
  status CLOSED;
  from R1-12-47-3_node_32;
  to R1-12-47-3_node_35;
};
object node {
  name R1-12-47-3_node_37;
  phases BN;
  voltage_B -3600-6235j;
  nominal_voltage 7200;
};
object fuse {
  name R1-12-47-3_fuse_6;
  phases BN;
  mean_replacement_time 1000;
  current_limit 50000;
  status CLOSED;
  from R1-12-47-3_node_36;
  to R1-12-47-3_node_37;
};
object meter {
  name R1-12-47-3_meter_1;
  phases CN;
  nominal_voltage 480;
};
object node {
  name R1-12-47-3_load_1;
  phases CN;
  nominal_voltage 480.00;
  parent R1-12-47-3_meter_1;
};
object meter {
  name R1-12-47-3_meter_2;
  phases ABCN;
  nominal_voltage 480;
};
object node {
  name R1-12-47-3_load_2;
  phases ABCN;
  nominal_voltage 480.00;
  parent R1-12-47-3_meter_2;
};
object meter {
  name R1-12-47-3_meter_3;
  phases ACN;
  nominal_voltage 480;
};
object node {
  name R1-12-47-3_load_3;
  phases ACN;
  nominal_voltage 480.00;
  parent R1-12-47-3_meter_3;
};
object meter {
  name R1-12-47-3_meter_4;
  phases CN;
  nominal_voltage 480;
};
object node {
  name R1-12-47-3_load_4;
  phases CN;
  nominal_voltage 480.00;
  parent R1-12-47-3_meter_4;
};
object meter {
  name R1-12-47-3_meter_5;
  phases CN;
  nominal_voltage 480;
};
object node {
  name R1-12-47-3_load_5;
  phases CN;
  nominal_voltage 480.00;
  parent R1-12-47-3_meter_5;
};
object meter {
  name R1-12-47-3_meter_6;
  phases ABCN;
  nominal_voltage 480;
};
object node {
  name R1-12-47-3_load_6;
  phases ABCN;
  nominal_voltage 480.00;
  parent R1-12-47-3_meter_6;
};
object meter {
  name R1-12-47-3_meter_7;
  phases AN;
  nominal_voltage 480;
};
object node {
  name R1-12-47-3_load_7;
  phases AN;
  nominal_voltage 480.00;
  parent R1-12-47-3_meter_7;
};
object meter {
  name R1-12-47-3_meter_8;
  phases ABCN;
  nominal_voltage 480;
};
object node {
  name R1-12-47-3_load_8;
  phases ABCN;
  nominal_voltage 480.00;
  parent R1-12-47-3_meter_8;
};
object meter {
  name R1-12-47-3_meter_9;
  phases BN;
  nominal_voltage 480;
};
object node {
  name R1-12-47-3_load_9;
  phases BN;
  nominal_voltage 480.00;
  parent R1-12-47-3_meter_9;
};
object node {
  name R1-12-47-3_load_10;
  phases ABCN;
  nominal_voltage 480.00;
  parent R1-12-47-3_meter_10;
};
object meter {
  name R1-12-47-3_meter_11;
  phases AN;
  nominal_voltage 480;
};
object node {
  name R1-12-47-3_load_11;
  phases AN;
  nominal_voltage 480.00;
  parent R1-12-47-3_meter_11;
};
object node {
  name R1-12-47-3_load_12;
  phases AN;
  nominal_voltage 480.00;
  parent R1-12-47-3_meter_12;
};
object meter {
  name R1-12-47-3_meter_13;
  phases AN;
  nominal_voltage 480;
};
object node {
  name R1-12-47-3_load_13;
  phases AN;
  nominal_voltage 480.00;
  parent R1-12-47-3_meter_13;
};
object meter {
  name R1-12-47-3_meter_15;
  phases BN;
  nominal_voltage 480;
};
object node {
  name R1-12-47-3_load_15;
  phases BN;
  nominal_voltage 480.00;
  parent R1-12-47-3_meter_15;
};
object meter {
  name R1-12-47-3_meter_16;
  phases BN;
  nominal_voltage 480;
};
object node {
  name R1-12-47-3_load_16;
  phases BN;
  nominal_voltage 480.00;
  parent R1-12-47-3_meter_16;
};
object meter {
  name R1-12-47-3_meter_17;
  phases BN;
  nominal_voltage 480;
};
object node {
  name R1-12-47-3_load_17;
  phases BN;
  nominal_voltage 480.00;
  parent R1-12-47-3_meter_17;
};
object meter {
  name R1-12-47-3_meter_18;
  phases ABCN;
  nominal_voltage 480;
};
object node {
  name R1-12-47-3_load_18;
  phases ABCN;
  nominal_voltage 480.00;
  parent R1-12-47-3_meter_18;
};
object meter {
  name R1-12-47-3_meter_19;
  phases AN;
  nominal_voltage 480;
};
object node {
  name R1-12-47-3_load_19;
  phases AN;
  nominal_voltage 480.00;
  parent R1-12-47-3_meter_19;
};
object meter {
  name R1-12-47-3_meter_20;
  phases ABCN;
  nominal_voltage 480;
};
object node {
  name R1-12-47-3_load_20;
  phases ABCN;
  nominal_voltage 480.00;
  parent R1-12-47-3_meter_20;
};
object node {
  name R1-12-47-3_node_1;
  phases ABCN;
  voltage_A 7200+0.0j;
  voltage_B -3600-6235j;
  voltage_C -3600+6235j;
  nominal_voltage 7200;
};
object node {
  name R1-12-47-3_node_2;
  phases ABCN;
  voltage_A 7200+0.0j;
  voltage_B -3600-6235j;
  voltage_C -3600+6235j;
  nominal_voltage 7200;
};
object node {
  name R1-12-47-3_node_3;
  phases ABCN;
  voltage_A 7200+0.0j;
  voltage_B -3600-6235j;
  voltage_C -3600+6235j;
  nominal_voltage 7200;
};
object node {
  name R1-12-47-3_node_4;
  phases ABCN;
  voltage_A 7200+0.0j;
  voltage_B -3600-6235j;
  voltage_C -3600+6235j;
  nominal_voltage 7200;
};
object node {
  name R1-12-47-3_node_5;
  phases ACN;
  voltage_A 7200+0.0j;
  voltage_C -3600+6235j;
  nominal_voltage 7200;
};
object node {
  name R1-12-47-3_node_6;
  phases CN;
  voltage_C -3600+6235j;
  nominal_voltage 7200;
};
object node {
  name R1-12-47-3_node_7;
  phases ABCN;
  voltage_A 7200+0.0j;
  voltage_B -3600-6235j;
  voltage_C -3600+6235j;
  nominal_voltage 7200;
};
object node {
  name R1-12-47-3_node_8;
  phases ABCN;
  voltage_A 7200+0.0j;
  voltage_B -3600-6235j;
  voltage_C -3600+6235j;
  nominal_voltage 7200;
};
object node {
  name R1-12-47-3_node_9;
  phases ABCN;
  voltage_A 7200+0.0j;
  voltage_B -3600-6235j;
  voltage_C -3600+6235j;
  nominal_voltage 7200;
};
object node {
  name R1-12-47-3_node_12;
  phases CN;
  voltage_C -3600+6235j;
  nominal_voltage 7200;
};
object node {
  name R1-12-47-3_node_13;
  phases ACN;
  voltage_A 7200+0.0j;
  voltage_C -3600+6235j;
  nominal_voltage 7200;
};
object node {
  name R1-12-47-3_node_14;
  phases CN;
  voltage_C -3600+6235j;
  nominal_voltage 7200;
};
object node {
  name R1-12-47-3_node_15;
  phases ABCN;
  voltage_A 7200+0.0j;
  voltage_B -3600-6235j;
  voltage_C -3600+6235j;
  nominal_voltage 7200;
};
object node {
  name R1-12-47-3_node_16;
  phases ABCN;
  voltage_A 7200+0.0j;
  voltage_B -3600-6235j;
  voltage_C -3600+6235j;
  nominal_voltage 7200;
};
object node {
  name R1-12-47-3_node_22;
  phases ABCN;
  voltage_A 7200+0.0j;
  voltage_B -3600-6235j;
  voltage_C -3600+6235j;
  nominal_voltage 7200;
};
object node {
  name R1-12-47-3_node_24;
  phases BN;
  voltage_B -3600-6235j;
  nominal_voltage 7200;
};
object node {
  name R1-12-47-3_node_25;
  phases BCN;
  voltage_B -3600-6235j;
  voltage_C -3600+6235j;
  nominal_voltage 7200;
};
object node {
  name R1-12-47-3_node_26;
  phases BCN;
  voltage_B -3600-6235j;
  voltage_C -3600+6235j;
  nominal_voltage 7200;
};
object node {
  name R1-12-47-3_node_30;
  phases AN;
  voltage_A 7200+0.0j;
  nominal_voltage 7200;
};
object node {
  name R1-12-47-3_node_31;
  phases ABCN;
  voltage_A 7200+0.0j;
  voltage_B -3600-6235j;
  voltage_C -3600+6235j;
  nominal_voltage 7200;
};
object node {
  name R1-12-47-3_node_34;
  phases ABCN;
  voltage_A 7200+0.0j;
  voltage_B -3600-6235j;
  voltage_C -3600+6235j;
  nominal_voltage 7200;
};
object node {
  name R1-12-47-3_node_38;
  phases BN;
  voltage_B -3600-6235j;
  nominal_voltage 7200;
};
object node {
  name R1-12-47-3_node_39;
  phases BN;
  voltage_B -3600-6235j;
  nominal_voltage 7200;
};
object node {
  name R1-12-47-3_node_41;
  phases ABCN;
  voltage_A 7200+0.0j;
  voltage_B -3600-6235j;
  voltage_C -3600+6235j;
  nominal_voltage 7200;
};
object node {
  name R1-12-47-3_node_42;
  phases ABCN;
  voltage_A 7200+0.0j;
  voltage_B -3600-6235j;
  voltage_C -3600+6235j;
  nominal_voltage 7200;
};
object node {
  name R1-12-47-3_node_43;
  phases ABCN;
  voltage_A 7200+0.0j;
  voltage_B -3600-6235j;
  voltage_C -3600+6235j;
  nominal_voltage 7200;
};
object node {
  name R1-12-47-3_node_44;
  phases AN;
  voltage_A 7200+0.0j;
  nominal_voltage 7200;
};
object node {
  name R1-12-47-3_node_45;
  phases ABCN;
  voltage_A 7200+0.0j;
  voltage_B -3600-6235j;
  voltage_C -3600+6235j;
  nominal_voltage 7200;
};
object node {
  name R1-12-47-3_node_46;
  phases ABCN;
  voltage_A 7200+0.0j;
  voltage_B -3600-6235j;
  voltage_C -3600+6235j;
  nominal_voltage 7200;
};
object node {
  name R1-12-47-3_node_47;
  phases ABCN;
  voltage_A 7200+0.0j;
  voltage_B -3600-6235j;
  voltage_C -3600+6235j;
  nominal_voltage 7200;
};
object node {
  name R1-12-47-3_node_48;
  phases ABCN;
  voltage_A 7200+0.0j;
  voltage_B -3600-6235j;
  voltage_C -3600+6235j;
  nominal_voltage 7200;
};
object node {
  name R1-12-47-3_node_49;
  phases ABCN;
  voltage_A 7200+0.0j;
  voltage_B -3600-6235j;
  voltage_C -3600+6235j;
  nominal_voltage 7200;
};
object node {
  name R1-12-47-3_node_50;
  phases ABCN;
  voltage_A 7200+0.0j;
  voltage_B -3600-6235j;
  voltage_C -3600+6235j;
  nominal_voltage 7200;
};
object node {
  name R1-12-47-3_node_51;
  phases ABCN;
  voltage_A 7200+0.0j;
  voltage_B -3600-6235j;
  voltage_C -3600+6235j;
  nominal_voltage 7200;
};
object node {
  name R1-12-47-3_node_52;
  phases ABCN;
  voltage_A 7200+0.0j;
  voltage_B -3600-6235j;
  voltage_C -3600+6235j;
  nominal_voltage 7200;
  parent R1-12-47-3_meter_22;
};
object overhead_line {
  groupid Distribution_Line;
  name R1-12-47-3_ol_1;
  phases ABCN;
  length 387.401;
  from R1-12-47-3_node_3;
  to R1-12-47-3_node_4;
  configuration line_configuration_18;
};
object overhead_line {
  groupid Distribution_Line;
  name R1-12-47-3_ol_2;
  phases ACN;
  length 68.936;
  from R1-12-47-3_node_4;
  to R1-12-47-3_node_5;
  configuration line_configuration_19;
};
object overhead_line {
  groupid Distribution_Line;
  name R1-12-47-3_ol_3;
  phases CN;
  length 157.766;
  from R1-12-47-3_node_4;
  to R1-12-47-3_node_6;
  configuration line_configuration_20;
};
object overhead_line {
  groupid Distribution_Line;
  name R1-12-47-3_ol_4;
  phases ABCN;
  length 139.494;
  from R1-12-47-3_node_4;
  to R1-12-47-3_node_7;
  configuration line_configuration_18;
};
object overhead_line {
  groupid Distribution_Line;
  name R1-12-47-3_ol_5;
  phases ABCN;
  length 1260.546;
  from R1-12-47-3_node_7;
  to R1-12-47-3_node_8;
  configuration line_configuration_18;
};
object overhead_line {
  groupid Distribution_Line;
  name R1-12-47-3_ol_6;
  phases ABCN;
  length 633.806;
  from R1-12-47-3_node_8;
  to R1-12-47-3_node_9;
  configuration line_configuration_18;
};
object overhead_line {
  groupid Distribution_Line;
  name R1-12-47-3_ol_7;
  phases ABCN;
  length 237.576;
  from R1-12-47-3_node_9;
  to R1-12-47-3_node_10;
  configuration line_configuration_21;
};
object overhead_line {
  groupid Distribution_Line;
  name R1-12-47-3_ol_8;
  phases ACN;
  length 749.489;
  from R1-12-47-3_node_8;
  to R1-12-47-3_node_11;
  configuration line_configuration_22;
};
object overhead_line {
  groupid Distribution_Line;
  name R1-12-47-3_ol_9;
  phases CN;
  length 122.880;
  from R1-12-47-3_node_11;
  to R1-12-47-3_node_12;
  configuration line_configuration_23;
};
object overhead_line {
  groupid Distribution_Line;
  name R1-12-47-3_ol_10;
  phases ACN;
  length 245.725;
  from R1-12-47-3_node_11;
  to R1-12-47-3_node_13;
  configuration line_configuration_19;
};
object overhead_line {
  groupid Distribution_Line;
  name R1-12-47-3_ol_11;
  phases CN;
  length 275.331;
  from R1-12-47-3_node_13;
  to R1-12-47-3_node_14;
  configuration line_configuration_23;
};
object overhead_line {
  groupid Distribution_Line;
  name R1-12-47-3_ol_12;
  phases ABCN;
  length 275.240;
  from R1-12-47-3_node_8;
  to R1-12-47-3_node_15;
  configuration line_configuration_18;
};
object overhead_line {
  groupid Distribution_Line;
  name R1-12-47-3_ol_13;
  phases ABCN;
  length 63.897;
  from R1-12-47-3_node_15;
  to R1-12-47-3_node_16;
  configuration line_configuration_18;
};
object overhead_line {
  groupid Distribution_Line;
  name R1-12-47-3_ol_15;
  phases ABCN;
  length 485.017;
  from R1-12-47-3_node_18;
  to R1-12-47-3_node_19;
  configuration line_configuration_24;
};
object overhead_line {
  groupid Distribution_Line;
  name R1-12-47-3_ol_16;
  phases ABCN;
  length 275.614;
  from R1-12-47-3_node_19;
  to R1-12-47-3_node_21;
  configuration line_configuration_26;
};
object overhead_line {
  groupid Distribution_Line;
...